gem5 Simulator System.  http://gem5.org
gem5 is copyrighted software; use the --copyright option for details.

gem5 compiled Mar 26 2017 23:57:34
gem5 started Apr 28 2019 23:24:30
gem5 executing on debian, pid 16030
command line: /root/gem5/gem5/build/ALPHA/gem5.opt --debug-flags=CCRegs /root/gem5/gem5/configs/example/se.py -c ./sanity

Global frequency set at 1000000000000 ticks per second
Setting IPR_ITB_ASN to 0
AlphaLiveProcess HELLO

00000000_00000000: 00000000_00000001 --> 16
00000000_00000000: ffffffff_fff92008 --> 17
00000000_00000000: ffffffff_fff92000 --> 30
00000000_00000000: 00000000_00000000 --> 29
**** REAL SIMULATION ****
info: Entering event queue @ 0.  Starting simulation...
00000000_00000000: 00000000_00000004 --> 29
00000000_00000004: 00000000_00001000 --> 29
00000000_00000008: 00000000_00011000 --> 29
00000000_0000000c: 00000000_00009000 --> 29
00000000_00000010: 00000000_00000001 --> 00
00000000_00000014: 00000000_00000002 --> 01
00000000_00000018: 00000000_11110000 --> 02
00000000_0000001c: 00000000_11112222 --> 02
00000000_00000020: 11112222_00000000 --> 02
00000000_00000024: 11112222_33330000 --> 02
00000000_00000028: 11112222_33334444 --> 02
00000000_0000002c: ffffffff_ffffffff --> 03
00000000_00000030: 00000000_33330000 --> 04
00000000_00000034: 00000000_33333333 --> 04
00000000_00000038: 33333333_00000000 --> 04
00000000_0000003c: 33333333_33330000 --> 04
00000000_00000040: 33333333_33333333 --> 04
00000000_00000044: 00000000_00000002 --> 05
00000000_00000048: ffffffff_ffff0000 --> 06
00000000_0000004c: 00000000_000000ff --> 07
00000000_00000050: 0000001f_e0000000 --> 07
00000000_00000054: 00000000_000000b7 --> 08
00000000_00000058: 00000000_0000b700 --> 08
00000000_0000005c: 00000000_0000b7b6 --> 08
00000000_00000060: 00000000_00b7b600 --> 08
00000000_00000064: 00000000_00b7b6b5 --> 08
00000000_00000068: 00000000_b7b6b500 --> 08
00000000_0000006c: 00000000_b7b6b5b4 --> 08
00000000_00000070: 000000b7_b6b5b400 --> 08
00000000_00000074: 000000b7_b6b5b4b3 --> 08
00000000_00000078: 0000b7b6_b5b4b300 --> 08
00000000_0000007c: 0000b7b6_b5b4b3b2 --> 08
00000000_00000080: 00b7b6b5_b4b3b200 --> 08
00000000_00000084: 00b7b6b5_b4b3b2b1 --> 08
00000000_00000088: b7b6b5b4_b3b2b100 --> 08
00000000_0000008c: b7b6b5b4_b3b2b1b0 --> 08
00000000_00000090: ffffffff_c0de0000 --> 25
00000000_00000094: 00000000_33334443 --> 20
00000000_00000098: 00000000_33334443 --> 21
00000000_0000009c: 11112222_33334443 --> 22
00000000_000000a0: 11112222_33334443 --> 23
00000000_000000a4: ffffffff_c0de0001 --> 25
00000000_000000a8: 00000000_33334445 --> 20
00000000_000000ac: ffffffff_ccccbbbb --> 21
00000000_000000b0: 11112222_33334445 --> 22
00000000_000000b4: eeeedddd_ccccbbbb --> 23
00000000_000000b8: ffffffff_c0de0002 --> 25
00000000_000000bc: 00000000_00000004 --> 20
00000000_000000c0: 00000000_00000004 --> 21
00000000_000000c4: 00000000_00000004 --> 22
00000000_000000c8: 00000000_00000004 --> 23
00000000_000000cc: ffffffff_cccd110f --> 20
00000000_000000d0: 11112222_33334440 --> 21
00000000_000000d4: ffffffff_cccd1111 --> 22
00000000_000000d8: eeeedddd_ccccbbb8 --> 23
00000000_000000dc: ffffffff_c0de0003 --> 25
00000000_000000e0: ffffffff_999a221f --> 20
00000000_000000e4: 11112222_3333443c --> 21
00000000_000000e8: ffffffff_999a2221 --> 22
00000000_000000ec: eeeedddd_ccccbbb4 --> 23
00000000_000000f0: ffffffff_c0de0004 --> 25
00000000_000000f4: 00000000_000000fc --> 20
00000000_000000f8: 00000000_0000000f --> 21
00000000_000000fc: ffffffff_c0de0005 --> 25
00000000_00000100: 00000000_00000000 --> 20
00000000_00000104: 00000000_00000000 --> 21
00000000_00000108: 00000000_00000001 --> 22
00000000_0000010c: ffffffff_c0de0006 --> 25
00000000_00000110: 00000000_00000000 --> 20
00000000_00000114: 00000000_00000000 --> 21
00000000_00000118: 00000000_00000001 --> 22
00000000_0000011c: ffffffff_c0de0007 --> 25
00000000_00000120: 00000000_00000000 --> 20
00000000_00000124: 00000000_00000000 --> 21
00000000_00000128: 00000000_00000000 --> 22
00000000_0000012c: ffffffff_c0de0008 --> 25
00000000_00000130: 00000000_00000000 --> 20
00000000_00000134: 00000000_00000001 --> 21
00000000_00000138: 00000000_00000001 --> 22
00000000_0000013c: 00000000_00000001 --> 20
00000000_00000140: 00000000_00000000 --> 21
00000000_00000144: 00000000_00000001 --> 22
00000000_00000148: ffffffff_c0de0009 --> 25
00000000_0000014c: 00000000_00000000 --> 20
00000000_00000150: 00000000_00000001 --> 21
00000000_00000154: 00000000_00000000 --> 22
00000000_00000158: 00000000_00000001 --> 20
00000000_0000015c: 00000000_00000000 --> 21
00000000_00000160: 00000000_00000000 --> 22
00000000_00000164: ffffffff_c0de000a --> 25
00000000_00000168: 00000000_00000004 --> 20
00000000_0000016c: ffffffff_fffffffe --> 21
00000000_00000170: 00000000_00000001 --> 22
00000000_00000174: ffffffff_8f5c258c --> 23
00000000_00000178: ffffffff_c0de000b --> 25
00000000_0000017c: 00000000_00000004 --> 20
00000000_00000180: ffffffff_fffffffe --> 21
00000000_00000184: 00000000_00000001 --> 22
00000000_00000188: fc962c5f_8f5c258c --> 23
00000000_0000018c: fc962c5f_8f5c258c --> 23
00000000_00000190: ffffffff_c0de000c --> 25
00000000_00000194: 00000000_00000000 --> 20
00000000_00000198: ffffffff_fffffffe --> 21
00000000_0000019c: 0369d3a0_70a3da73 --> 22
00000000_000001a0: 00000000_00000001 --> 23
00000000_000001a4: ffffffff_c0de000d --> 25
00000000_000001a8: 00000000_00000040 --> 20
00000000_000001ac: 00000000_00000000 --> 21
00000000_000001b0: 00000000_00000040 --> 22
00000000_000001b4: 00000000_00000000 --> 20
00000000_000001b8: 00000000_00000040 --> 21
00000000_000001bc: 00000000_00000000 --> 22
00000000_000001c0: 00000000_0000003e --> 20
00000000_000001c4: 00000000_00000001 --> 21
00000000_000001c8: 00000000_00000001 --> 22
00000000_000001cc: 00000000_00000000 --> 20
00000000_000001d0: 00000000_00000030 --> 21
00000000_000001d4: 00000000_00000010 --> 22
00000000_000001d8: 00000000_0000001b --> 20
00000000_000001dc: 00000000_00000008 --> 21
00000000_000001e0: 00000000_0000001d --> 22
00000000_000001e4: ffffffff_c0de000e --> 25
00000000_000001e8: 00000000_00000000 --> 20
00000000_000001ec: 00000000_00000044 --> 21
00000000_000001f0: 0000001f_e0000000 --> 22
00000000_000001f4: 11112222_33330000 --> 23
00000000_000001f8: eeeedddd_ccccbbb9 --> 20
00000000_000001fc: eeeedddd_ccccbb44 --> 21
00000000_00000200: 0000001f_e0000000 --> 22
00000000_00000204: ddddeeee_ffff8888 --> 23
00000000_00000208: ffffffff_fffffffd --> 20
00000000_0000020c: ffffffff_ffffff44 --> 21
00000000_00000210: 0000001f_e0000000 --> 22
00000000_00000214: ddddeeee_ffffcccc --> 23
00000000_00000218: 11112222_33334446 --> 20
00000000_0000021c: 11112222_333344bb --> 21
00000000_00000220: ffffffe0_1fffffff --> 22
00000000_00000224: 22221111_00007777 --> 23
00000000_00000228: ffffffff_c0de000f --> 25
00000000_0000022c: 11112222_333344ff --> 20
00000000_00000230: 11112222_33334444 --> 21
00000000_00000234: 0000001f_e0000002 --> 22
00000000_00000238: 0000001f_e0000002 --> 23
00000000_0000023c: 11112222_33334400 --> 20
00000000_00000240: 00000000_00000000 --> 21
00000000_00000244: 00000000_00000000 --> 22
00000000_00000248: ffffffff_fffffffd --> 23
00000000_0000024c: ffffffff_c0de0010 --> 25
00000000_00000250: 00000000_00000000 --> 20
00000000_00000254: 00000000_00000000 --> 21
00000000_00000258: 00000000_00000000 --> 22
00000000_0000025c: ffffffff_ffffffff --> 20
00000000_00000260: 00000000_00000000 --> 21
00000000_00000264: 00000000_00000000 --> 22
00000000_00000268: 00000000_00000000 --> 20
00000000_0000026c: 00000000_00000000 --> 21
00000000_00000270: 00000000_00000000 --> 22
00000000_00000274: 00000000_00000000 --> 20
00000000_00000278: ffffffff_ffffffff --> 21
00000000_0000027c: ffffffff_ffffffff --> 22
00000000_00000280: 00000000_00000000 --> 20
00000000_00000284: 00000000_00000000 --> 21
00000000_00000288: 00000000_00000000 --> 22
00000000_0000028c: ffffffff_ffffffff --> 20
00000000_00000290: ffffffff_ffffffff --> 21
00000000_00000294: 00000000_00000000 --> 22
00000000_00000298: 00000000_00000000 --> 20
00000000_0000029c: 00000000_00000000 --> 21
00000000_000002a0: 00000000_00000000 --> 22
00000000_000002a4: 00000000_00000000 --> 20
00000000_000002a8: ffffffff_ffffffff --> 21
00000000_000002ac: 00000000_00000000 --> 22
00000000_000002b0: 00000000_00000000 --> 20
00000000_000002b4: 00000000_00000000 --> 21
00000000_000002b8: 00000000_00000000 --> 22
00000000_000002bc: ffffffff_ffffffff --> 20
00000000_000002c0: 00000000_00000000 --> 21
00000000_000002c4: ffffffff_ffffffff --> 22
00000000_000002c8: 00000000_00000000 --> 20
00000000_000002cc: 00000000_00000000 --> 21
00000000_000002d0: 00000000_00000000 --> 22
00000000_000002d4: 00000000_00000000 --> 20
00000000_000002d8: 00000000_00000000 --> 21
00000000_000002dc: ffffffff_ffffffff --> 22
00000000_000002e0: 00000000_00000000 --> 20
00000000_000002e4: 00000000_00000000 --> 21
00000000_000002e8: 00000000_00000000 --> 20
00000000_000002ec: ffffffff_ffffffff --> 21
00000000_000002f0: 00000000_00000000 --> 20
00000000_000002f4: 00000000_00000000 --> 21
00000000_000002f8: ffffffff_ffffffff --> 20
00000000_000002fc: 00000000_00000000 --> 21
00000000_00000300: 00000000_00001987 --> 20
00000000_00000304: 00000000_00001987 --> 20
00000000_00000308: 00000000_19870000 --> 20
00000000_0000030c: ffffffff_ffffffff --> 20
00000000_00000310: ffffffff_ffff0000 --> 20
00000000_00000314: 00000000_00001987 --> 20
00000000_00000318: 00000000_00001987 --> 20
00000000_00000320: 00000000_19870000 --> 20
00000000_00000324: ffffffff_ffffffff --> 20
00000000_0000032c: ffffffff_ffff0000 --> 20
00000000_00000330: ffffffff_c0de0011 --> 25
00000000_00000334: 00000000_00000002 --> 20
00000000_00000338: 00000000_00000004 --> 21
00000000_0000033c: 00000000_0000001e --> 20
00000000_00000340: 00000000_80000000 --> 22
00000000_00000344: 00000000_00000004 --> 23
00000000_00000348: 00000000_00000102 --> 20
00000000_0000034c: 00000000_00000008 --> 23
00000000_00000350: 80000000_00000000 --> 24
00000000_00000354: 80000000_00000000 --> 20
00000000_00000358: fc000000_00000000 --> 20
00000000_0000035c: 00000000_00000007 --> 20
00000000_00000360: ff000000_00000000 --> 20
00000000_00000364: ffff0000_00000000 --> 20
00000000_00000368: ffffff00_00000000 --> 20
00000000_0000036c: c0000000_00000000 --> 21
00000000_00000370: ffffffff_ffffffff --> 22
00000000_00000374: 80000000_00000000 --> 20
00000000_00000378: 04000000_00000000 --> 20
00000000_0000037c: 00000000_00000007 --> 20
00000000_00000380: 01000000_00000000 --> 20
00000000_00000384: 40000000_00000000 --> 21
00000000_00000388: 00000000_00000001 --> 22
00000000_0000038c: ffffffff_c0de0012 --> 25
00000000_00000390: 00000000_000000b0 --> 20
00000000_00000394: 00000000_000000b6 --> 20
00000000_00000398: 00000000_000000b7 --> 20
00000000_0000039c: 00000000_000000b0 --> 20
00000000_000003a0: 00000000_000000b2 --> 20
00000000_000003a4: 00000000_0000b1b0 --> 21
00000000_000003a8: 00000000_0000b1b0 --> 21
00000000_000003ac: 00000000_00000000 --> 21
00000000_000003b0: 00000000_0000b6b5 --> 21
00000000_000003b4: 00000000_00000000 --> 21
00000000_000003b8: 00000000_0000b3b2 --> 21
00000000_000003bc: 00000000_b3b2b1b0 --> 22
00000000_000003c0: 00000000_b3b2b1b0 --> 22
00000000_000003c4: 00000000_b0000000 --> 22
00000000_000003c8: 00000000_00b7b6b5 --> 22
00000000_000003cc: 00000000_00000000 --> 22
00000000_000003d0: 00000000_b5b4b3b2 --> 22
00000000_000003d4: b7b6b5b4_b3b2b1b0 --> 23
00000000_000003d8: b7b6b5b4_b3b2b1b0 --> 23
00000000_000003dc: b4b3b2b1_b0000000 --> 23
00000000_000003e0: 00000000_00b7b6b5 --> 23
00000000_000003e4: b1b00000_00000000 --> 23
00000000_000003e8: 0000b7b6_b5b4b3b2 --> 23
00000000_000003ec: ffffffff_c0de0013 --> 25
00000000_000003f0: 00000000_000000b0 --> 20
00000000_000003f4: 00b00000_00000000 --> 20
00000000_000003f8: b0000000_00000000 --> 20
00000000_000003fc: 00000000_000000b0 --> 20
00000000_00000400: 00000000_00b00000 --> 20
00000000_00000404: 00000000_00000000 --> 21
00000000_00000408: 00000000_0000b1b0 --> 21
00000000_0000040c: 00000000_00000000 --> 21
00000000_00000410: 00b1b000_00000000 --> 21
00000000_00000414: 00000000_00000000 --> 21
00000000_00000418: 00000000_b1b00000 --> 21
00000000_0000041c: 00000000_00000000 --> 22
00000000_00000420: 00000000_b3b2b1b0 --> 22
00000000_00000424: 00000000_000000b3 --> 22
00000000_00000428: b2b1b000_00000000 --> 22
00000000_0000042c: 00000000_00000000 --> 22
00000000_00000430: 0000b3b2_b1b00000 --> 22
00000000_00000434: 00000000_00000000 --> 23
00000000_00000438: b7b6b5b4_b3b2b1b0 --> 23
00000000_0000043c: 000000b7_b6b5b4b3 --> 23
00000000_00000440: b2b1b000_00000000 --> 23
00000000_00000444: 00000000_0000b7b6 --> 23
00000000_00000448: b5b4b3b2_b1b00000 --> 23
00000000_0000044c: b7b6b5b4_b3b2b100 --> 20
00000000_00000450: b700b5b4_b3b2b1b0 --> 20
00000000_00000454: 00b6b5b4_b3b2b1b0 --> 20
00000000_00000458: b7b6b5b4_b3b2b100 --> 20
00000000_0000045c: b7b6b5b4_b300b1b0 --> 20
00000000_00000460: b7b6b5b4_b3b2b1b0 --> 21
00000000_00000464: b7b6b5b4_b3b20000 --> 21
00000000_00000468: b7b6b5b4_b3b2b1b0 --> 21
00000000_0000046c: b70000b4_b3b2b1b0 --> 21
00000000_00000470: b7b6b5b4_b3b2b1b0 --> 21
00000000_00000474: b7b6b5b4_0000b1b0 --> 21
00000000_00000478: b7b6b5b4_b3b2b1b0 --> 22
00000000_0000047c: b7b6b5b4_00000000 --> 22
00000000_00000480: b7b6b5b4_b3b2b100 --> 22
00000000_00000484: 000000b4_b3b2b1b0 --> 22
00000000_00000488: b7b6b5b4_b3b2b1b0 --> 22
00000000_0000048c: b7b60000_0000b1b0 --> 22
00000000_00000490: b7b6b5b4_b3b2b1b0 --> 23
00000000_00000494: 00000000_00000000 --> 23
00000000_00000498: b7b6b500_00000000 --> 23
00000000_0000049c: 000000b4_b3b2b1b0 --> 23
00000000_000004a0: b7b6b5b4_b3b20000 --> 23
00000000_000004a4: 00000000_0000b1b0 --> 23
00000000_000004a8: 00b600b4_00b200b0 --> 20
00000000_000004ac: b700b500_b300b100 --> 20
00000000_000004b0: b7b6b5b4_b3b200b0 --> 20
00000000_000004b4: b700b500_b300b100 --> 20
00000000_000004b8: 00b600b4_00b200b0 --> 20
00000000_000004bc: 00000000_0000b100 --> 20
00000000_000004c0: ffffffff_c0de0014 --> 25
00000000_000004d4: 00000000_00000777 --> 20
00000000_000004e8: 00000000_00000777 --> 20
00000000_000004fc: 00000000_00000777 --> 20
00000000_00000510: 00000000_00000777 --> 20
00000000_00000524: 00000000_00000777 --> 20
00000000_00000538: 00000000_00000777 --> 20
00000000_0000054c: 00000000_00000777 --> 20
00000000_00000560: 00000000_00000777 --> 20
00000000_00000564: ffffffff_c0de0015 --> 25
00000000_00000568: 00000000_0000056c --> 20
00000000_00000570: 00000000_00000777 --> 21
00000000_00000574: 00000000_00000578 --> 20
00000000_0000057c: 00000000_00000777 --> 21
00000000_00000580: ffffffff_c0de0016 --> 25
00000000_00000584: 00000000_00000590 --> 27
00000000_00000588: 00000000_0000058c --> 20
00000000_00000590: 00000000_00000777 --> 21
00000000_00000594: 00000000_000005a0 --> 27
00000000_00000598: 00000000_0000059c --> 26
00000000_000005a0: 00000000_00000777 --> 21
00000000_000005a4: 00000000_000005b0 --> 26
00000000_000005b0: 00000000_00000777 --> 21
00000000_000005b4: ffffffff_c0de0017 --> 25
00000000_000005b8: 00000000_00000594 --> 20
00000000_000005bc: ffffffff_a77d8010 --> 21
00000000_000005c0: 00000000_6b5b4001 --> 21
00000000_000005c4: 00000000_22bf0666 --> 21
00000000_000005c8: 00000000_22bf0777 --> 21
00000000_000005cc: ffffffff_a75d8008 --> 21
00000000_000005d0: 00000000_00000590 --> 20
00000000_000005d4: a77d8010_22bf0777 --> 21
00000000_000005d8: 22bf0666_6b5b4001 --> 21
00000000_000005dc: a75d8008_22bf0777 --> 21
00000000_000005e0: 22bf0666_6bfa8001 --> 21
00000000_000005e4: 23390001_22bf0777 --> 21
00000000_000005e8: 00000000_00000718 --> 20
00000000_000005f4: b3b2b1b0_33334444 --> 21
00000000_000005fc: b7b6b5b4_b3b2b1b0 --> 21
00000000_00000600: 00000000_00000000 --> 22
00000000_00000604: 00000000_00000720 --> 23
00000000_00000608: 00000000_00000000 --> 22
00000000_0000060c: 00000000_000000b0 --> 21
00000000_00000610: ffffffff_ffffffb0 --> 25
00000000_00000614: 00000000_000000b0 --> 22
00000000_00000618: 00000000_00000719 --> 20
00000000_0000061c: 00000000_00000000 --> 24
00000000_00000608: 00000000_0000b000 --> 22
00000000_0000060c: 00000000_000000b1 --> 21
00000000_00000610: ffffffff_ffffffb1 --> 25
00000000_00000614: 00000000_0000b0b1 --> 22
00000000_00000618: 00000000_0000071a --> 20
00000000_0000061c: 00000000_00000000 --> 24
00000000_00000608: 00000000_00b0b100 --> 22
00000000_0000060c: 00000000_000000b2 --> 21
00000000_00000610: ffffffff_ffffffb2 --> 25
00000000_00000614: 00000000_00b0b1b2 --> 22
00000000_00000618: 00000000_0000071b --> 20
00000000_0000061c: 00000000_00000000 --> 24
00000000_00000608: 00000000_b0b1b200 --> 22
00000000_0000060c: 00000000_000000b3 --> 21
00000000_00000610: ffffffff_ffffffb3 --> 25
00000000_00000614: 00000000_b0b1b2b3 --> 22
00000000_00000618: 00000000_0000071c --> 20
00000000_0000061c: 00000000_00000000 --> 24
00000000_00000608: 000000b0_b1b2b300 --> 22
00000000_0000060c: 00000000_000000b4 --> 21
00000000_00000610: ffffffff_ffffffb4 --> 25
00000000_00000614: 000000b0_b1b2b3b4 --> 22
00000000_00000618: 00000000_0000071d --> 20
00000000_0000061c: 00000000_00000000 --> 24
00000000_00000608: 0000b0b1_b2b3b400 --> 22
00000000_0000060c: 00000000_000000b5 --> 21
00000000_00000610: ffffffff_ffffffb5 --> 25
00000000_00000614: 0000b0b1_b2b3b4b5 --> 22
00000000_00000618: 00000000_0000071e --> 20
00000000_0000061c: 00000000_00000000 --> 24
00000000_00000608: 00b0b1b2_b3b4b500 --> 22
00000000_0000060c: 00000000_000000b6 --> 21
00000000_00000610: ffffffff_ffffffb6 --> 25
00000000_00000614: 00b0b1b2_b3b4b5b6 --> 22
00000000_00000618: 00000000_0000071f --> 20
00000000_0000061c: 00000000_00000000 --> 24
00000000_00000608: b0b1b2b3_b4b5b600 --> 22
00000000_0000060c: 00000000_000000b7 --> 21
00000000_00000610: ffffffff_ffffffb7 --> 25
00000000_00000614: b0b1b2b3_b4b5b6b7 --> 22
00000000_00000618: 00000000_00000720 --> 20
00000000_0000061c: 00000000_00000001 --> 24
00000000_00000628: 00000000_0000b4b5 --> 21
00000000_0000062c: ffffffff_ffffb4b5 --> 21
00000000_00000630: 00000000_0000b6b7 --> 22
00000000_00000634: ffffffff_ffffb6b7 --> 22
00000000_00000638: 00000000_00004444 --> 22
00000000_0000063c: 00000000_00000044 --> 22
00000000_00000640: 00000000_00000010 --> 21
00000000_00000644: 00000000_00000718 --> 23
00000000_00000648: 00000000_0000071f --> 20
00000000_00000650: 00000000_00000020 --> 21
00000000_00000654: 00000000_00000000 --> 24
00000000_00000648: 00000000_0000071e --> 20
00000000_00000650: 00000000_00000030 --> 21
00000000_00000654: 00000000_00000000 --> 24
00000000_00000648: 00000000_0000071d --> 20
00000000_00000650: 00000000_00000040 --> 21
00000000_00000654: 00000000_00000000 --> 24
00000000_00000648: 00000000_0000071c --> 20
00000000_00000650: 00000000_00000050 --> 21
00000000_00000654: 00000000_00000000 --> 24
00000000_00000648: 00000000_0000071b --> 20
00000000_00000650: 00000000_00000060 --> 21
00000000_00000654: 00000000_00000000 --> 24
00000000_00000648: 00000000_0000071a --> 20
00000000_00000650: 00000000_00000070 --> 21
00000000_00000654: 00000000_00000000 --> 24
00000000_00000648: 00000000_00000719 --> 20
00000000_00000650: 00000000_00000080 --> 21
00000000_00000654: 00000000_00000000 --> 24
00000000_00000648: 00000000_00000718 --> 20
00000000_00000650: 00000000_00000090 --> 21
00000000_00000654: 00000000_00000001 --> 24
00000000_0000065c: 10203040_50607080 --> 21
00000000_00000660: 00000000_00004444 --> 21
00000000_00000668: 00000000_00003333 --> 21
00000000_00000670: 00000000_00002222 --> 21
00000000_00000678: 00000000_00001111 --> 21
00000000_00000680: 44443333_22221111 --> 21
00000000_00000688: b7b6b5b4_b3b2b1b0 --> 21
00000000_0000068c: 11112222_33334444 --> 25
00000000_00000690: 00000000_00000000 --> 25
00000000_00000694: ffffffff_b3b2b1b0 --> 21
00000000_00000698: 00000000_00000001 --> 02
00000000_0000069c: 00000000_33334444 --> 21
00000000_000006a0: 00000000_00000001 --> 25
00000000_000006a4: 00000000_00000000 --> 25
00000000_000006a8: b7b6b5b4_33334444 --> 21
00000000_000006ac: 00000000_00000001 --> 02
00000000_000006b0: 00000000_00000001 --> 21
00000000_000006b4: 00000000_00000001 --> 25
00000000_000006b8: 00000000_00000594 --> 20
00000000_000006bc: 00000000_00000001 --> 21
00000000_000006c0: 80000000_00000000 --> 21
00000000_000006c4: 80000000_00000594 --> 20
00000000_000006c8: 80000000_00000590 --> 20
